/*--------------------------------*- C++ -*----------------------------------*\
  =========                 |
  \\      /  F ield         | OpenFOAM: The Open Source CFD Toolbox
   \\    /   O peration     | Website:  https://openfoam.org
    \\  /    A nd           | Version:  8
     \\/     M anipulation  |
\*---------------------------------------------------------------------------*/
FoamFile
{
    version     2.0;
    format      ascii;
    class       dictionary;
    object      blockMeshDict;
}
// * * * * * * * * * * * * * * * * * * * * * * * * * * * * * * * * * * * * * //

convertToMeters 0.01;

vertices
(
    (-0.8 -0.8 -0.8)
    (0.8 -0.8 -0.8)
    (0.8 0.8 -0.8)
    (-0.8 0.8 -0.8)
    (-0.8 -0.8 0.8)
    (0.8 -0.8 0.8)
    (0.8 0.8 0.8)
    (-0.8 0.8 0.8)
);

blocks
(
    hex (0 1 2 3 4 5 6 7) (160 160 160) simpleGrading (1 1 1)
);

edges
(
);

boundary
(
    east
    {
        type patch;
        faces
        (
            (2 6 5 1)
        );
    }
    west
    {
    	type patch;
	faces
	(
            (0 4 7 3)
	);
    }	
    north
    {
    	type patch;
	faces
	(
            (3 7 6 2)
	);
    }
    south
    {
        type patch;
        faces
        (
            (1 5 4 0)
        );
    }
    frontAndBack
    {
        type patch;
        faces
        (
            (0 3 2 1)
            (4 5 6 7)
        );
    }
);

mergePatchPairs
(
);

// ************************************************************************* //
